*SPEF "IEEE 1481-1998"
*DESIGN "usb"
*DATE "Wed Jan 29 16:07:20 2025"
*VENDOR "AUC CSCE Department"
*PROGRAM "SPEF Extractor"
*VERSION "1.0"
*DESIGN_FLOW "PIN_CAP NONE"
*DIVIDER /
*DELIMITER :
*BUS_DELIMITER []
*T_UNIT 1.00000 NS
*C_UNIT 1.00000 PF
*R_UNIT 1.00000 OHM
*L_UNIT 1.00000 HENRY


*NAME_MAP
*0 clk_48
*1 data_in[0]
*2 data_in[1]
*3 data_in[2]
*4 data_in[3]
*5 data_in[4]
*6 data_in[5]
*7 data_in[6]
*8 data_in[7]
*9 data_in_valid
*10 data_out[0]
*11 data_out[1]
*12 data_out[2]
*13 data_out[3]
*14 data_out[4]
*15 data_out[5]
*16 data_out[6]
*17 data_out[7]
*18 data_strobe
*19 data_toggle
*20 direction_in
*21 endpoint[0]
*22 endpoint[1]
*23 endpoint[2]
*24 endpoint[3]
*25 handshake[0]
*26 handshake[1]
*27 rst_n
*28 rx_j
*29 rx_se0
*30 setup
*31 success
*32 transaction_active
*33 tx_en
*34 tx_j
*35 tx_se0
*36 usb_address[0]
*37 usb_address[1]
*38 usb_address[2]
*39 usb_address[3]
*40 usb_address[4]
*41 usb_address[5]
*42 usb_address[6]
*43 usb_rst
*44 _0000_
*45 _0001_
*46 _0002_
*47 _0003_
*48 _0004_
*49 _0005_
*50 _0006_
*51 _0007_
*52 _0008_
*53 _0009_
*54 _0010_
*55 _0011_
*56 _0012_
*57 _0013_
*58 _0014_
*59 _0015_
*60 _0016_
*61 _0017_
*62 _0018_
*63 _0019_
*64 _0020_
*65 _0021_
*66 _0022_
*67 _0023_
*68 _0024_
*69 _0025_
*70 _0026_
*71 _0027_
*72 _0028_
*73 _0029_
*74 _0030_
*75 _0031_
*76 _0032_
*77 _0033_
*78 _0034_
*79 _0035_
*80 _0036_
*81 _0037_
*82 _0038_
*83 _0039_
*84 _0040_
*85 _0041_
*86 _0042_
*87 _0043_
*88 _0044_
*89 _0045_
*90 _0046_
*91 _0047_
*92 _0048_
*93 _0049_
*94 _0050_
*95 _0051_
*96 _0052_
*97 _0053_
*98 _0054_
*99 _0055_
*100 _0056_
*101 _0057_
*102 _0058_
*103 _0059_
*104 _0060_
*105 _0061_
*106 _0062_
*107 _0063_
*108 _0064_
*109 _0065_
*110 _0066_
*111 _0067_
*112 _0068_
*113 _0069_
*114 _0070_
*115 _0071_
*116 _0072_
*117 _0073_
*118 _0074_
*119 _0075_
*120 _0076_
*121 _0077_
*122 _0078_
*123 _0079_
*124 _0080_
*125 _0081_
*126 _0082_
*127 _0083_
*128 _0084_
*129 _0085_
*130 _0086_
*131 _0087_
*132 _0088_
*133 _0089_
*134 _0090_
*135 _0091_
*136 _0092_
*137 _0093_
*138 _0094_
*139 _0095_
*140 _0096_
*141 _0097_
*142 _0098_
*143 _0099_
*144 _0100_
*145 _0101_
*146 _0102_
*147 _0103_
*148 _0104_
*149 _0105_
*150 _0106_
*151 _0107_
*152 _0108_
*153 _0109_
*154 _0110_
*155 _0111_
*156 _0112_
*157 _0113_
*158 _0114_
*159 _0115_
*160 _0116_
*161 _0117_
*162 _0118_
*163 _0119_
*164 _0120_
*165 _0121_
*166 _0122_
*167 _0123_
*168 _0124_
*169 _0125_
*170 _0126_
*171 _0127_
*172 _0128_
*173 _0129_
*174 _0130_
*175 _0131_
*176 _0132_
*177 _0133_
*178 _0134_
*179 _0135_
*180 _0136_
*181 _0137_
*182 _0138_
*183 _0139_
*184 _0140_
*185 _0141_
*186 _0142_
*187 _0143_
*188 _0144_
*189 _0145_
*190 _0146_
*191 _0147_
*192 _0148_
*193 _0149_
*194 _0150_
*195 _0151_
*196 _0152_
*197 _0153_
*198 _0154_
*199 _0155_
*200 _0156_
*201 _0157_
*202 _0158_
*203 _0159_
*204 _0160_
*205 _0161_
*206 _0162_
*207 _0163_
*208 _0164_
*209 _0165_
*210 _0166_
*211 _0167_
*212 _0168_
*213 _0169_
*214 _0170_
*215 _0171_
*216 _0172_
*217 _0173_
*218 _0174_
*219 _0175_
*220 _0176_
*221 _0177_
*222 _0178_
*223 _0179_
*224 _0180_
*225 _0181_
*226 _0182_
*227 _0183_
*228 _0184_
*229 _0185_
*230 _0186_
*231 _0187_
*232 _0188_
*233 _0189_
*234 _0190_
*235 _0191_
*236 _0192_
*237 _0193_
*238 _0194_
*239 _0195_
*240 _0196_
*241 _0197_
*242 _0198_
*243 _0199_
*244 _0200_
*245 _0201_
*246 _0202_
*247 _0203_
*248 _0204_
*249 _0205_
*250 _0206_
*251 _0207_
*252 _0208_
*253 _0209_
*254 _0210_
*255 _0211_
*256 _0212_
*257 _0213_
*258 _0214_
*259 _0215_
*260 _0216_
*261 _0217_
*262 _0218_
*263 _0219_
*264 _0220_
*265 _0221_
*266 _0222_
*267 _0223_
*268 _0224_
*269 _0225_
*270 _0226_
*271 _0227_
*272 _0228_
*273 _0229_
*274 _0230_
*275 _0231_
*276 _0232_
*277 _0233_
*278 _0234_
*279 _0235_
*280 _0236_
*281 _0237_
*282 _0238_
*283 _0239_
*284 _0240_
*285 _0241_
*286 _0242_
*287 _0243_
*288 _0244_
*289 _0245_
*290 _0246_
*291 _0247_
*292 _0248_
*293 _0249_
*294 _0250_
*295 _0251_
*296 _0252_
*297 _0253_
*298 _0254_
*299 _0255_
*300 _0256_
*301 _0257_
*302 _0258_
*303 _0259_
*304 _0260_
*305 _0261_
*306 _0262_
*307 _0263_
*308 _0264_
*309 _0265_
*310 _0266_
*311 _0267_
*312 _0268_
*313 _0269_
*314 _0270_
*315 _0271_
*316 _0272_
*317 _0273_
*318 _0274_
*319 _0275_
*320 _0276_
*321 _0277_
*322 _0278_
*323 _0279_
*324 _0280_
*325 _0281_
*326 _0282_
*327 _0283_
*328 _0284_
*329 _0285_
*330 _0286_
*331 _0287_
*332 _0288_
*333 _0289_
*334 _0290_
*335 _0291_
*336 _0292_
*337 _0293_
*338 _0294_
*339 _0295_
*340 _0296_
*341 _0297_
*342 _0298_
*343 _0299_
*344 _0300_
*345 _0301_
*346 _0302_
*347 _0303_
*348 _0304_
*349 _0305_
*350 _0306_
*351 _0307_
*352 _0308_
*353 _0309_
*354 _0310_
*355 _0311_
*356 _0312_
*357 _0313_
*358 _0314_
*359 _0315_
*360 _0316_
*361 _0317_
*362 _0318_
*363 _0319_
*364 _0320_
*365 _0321_
*366 _0322_
*367 _0323_
*368 _0324_
*369 _0325_
*370 _0326_
*371 _0327_
*372 _0328_
*373 _0329_
*374 _0330_
*375 _0331_
*376 _0332_
*377 _0333_
*378 _0334_
*379 _0335_
*380 _0336_
*381 _0337_
*382 _0338_
*383 _0339_
*384 _0340_
*385 _0341_
*386 _0342_
*387 _0343_
*388 _0344_
*389 _0345_
*390 _0346_
*391 _0347_
*392 _0348_
*393 _0349_
*394 _0350_
*395 _0351_
*396 _0352_
*397 _0353_
*398 _0354_
*399 _0355_
*400 _0356_
*401 _0357_
*402 _0358_
*403 _0359_
*404 _0360_
*405 _0361_
*406 _0362_
*407 _0363_
*408 _0364_
*409 _0365_
*410 _0366_
*411 _0367_
*412 _0368_
*413 _0369_
*414 _0370_
*415 _0371_
*416 _0372_
*417 _0373_
*418 _0374_
*419 _0375_
*420 _0376_
*421 _0377_
*422 _0378_
*423 _0379_
*424 _0380_
*425 _0381_
*426 _0382_
*427 _0383_
*428 _0384_
*429 _0385_
*430 _0386_
*431 _0387_
*432 _0388_
*433 _0389_
*434 _0390_
*435 _0391_
*436 _0392_
*437 _0393_
*438 _0394_
*439 _0395_
*440 _0396_
*441 _0397_
*442 _0398_
*443 _0399_
*444 _0400_
*445 _0401_
*446 _0402_
*447 _0403_
*448 _0404_
*449 _0405_
*450 _0406_
*451 _0407_
*452 _0408_
*453 _0409_
*454 _0410_
*455 _0411_
*456 _0412_
*457 _0413_
*458 _0414_
*459 _0415_
*460 _0416_
*461 _0417_
*462 _0418_
*463 _0419_
*464 _0420_
*465 _0421_
*466 _0422_
*467 _0423_
*468 _0424_
*469 _0425_
*470 _0426_
*471 _0427_
*472 _0428_
*473 _0429_
*474 _0430_
*475 _0431_
*476 _0432_
*477 _0433_
*478 _0434_
*479 _0435_
*480 _0436_
*481 _0437_
*482 _0438_
*483 _0439_
*484 _0440_
*485 _0441_
*486 _0442_
*487 _0443_
*488 _0444_
*489 _0445_
*490 _0446_
*491 _0447_
*492 _0448_
*493 _0449_
*494 _0450_
*495 _0451_
*496 _0452_
*497 _0453_
*498 _0454_
*499 _0455_
*500 _0456_
*501 _0457_
*502 _0458_
*503 _0459_
*504 _0460_
*505 _0461_
*506 _0462_
*507 _0463_
*508 _0464_
*509 _0465_
*510 _0466_
*511 _0467_
*512 _0468_
*513 _0469_
*514 _0470_
*515 _0471_
*516 _0472_
*517 _0473_
*518 _0474_
*519 _0475_
*520 _0476_
*521 _0477_
*522 _0478_
*523 _0479_
*524 _0480_
*525 _0481_
*526 _0482_
*527 _0483_
*528 _0484_
*529 _0485_
*530 _0486_
*531 _0487_
*532 _0488_
*533 _0489_
*534 _0490_
*535 _0491_
*536 _0492_
*537 _0493_
*538 _0494_
*539 _0495_
*540 _0496_
*541 _0497_
*542 _0498_
*543 _0499_
*544 _0500_
*545 _0501_
*546 _0502_
*547 _0503_
*548 _0504_
*549 _0505_
*550 _0506_
*551 _0507_
*552 _0508_
*553 _0509_
*554 _0510_
*555 _0511_
*556 _0512_
*557 _0513_
*558 _0514_
*559 _0515_
*560 _0516_
*561 _0517_
*562 _0518_
*563 _0519_
*564 _0520_
*565 _0521_
*566 _0522_
*567 _0523_
*568 _0524_
*569 _0525_
*570 _0526_
*571 _0527_
*572 _0528_
*573 _0529_
*574 _0530_
*575 _0531_
*576 _0532_
*577 _0533_
*578 _0534_
*579 _0535_
*580 _0536_
*581 _0537_
*582 _0538_
*583 _0539_
*584 _0540_
*585 _0541_
*586 _0542_
*587 _0543_
*588 _0544_
*589 _0545_
*590 _0546_
*591 _0547_
*592 _0548_
*593 _0549_
*594 _0550_
*595 _0551_
*596 _0552_
*597 _0553_
*598 _0554_
*599 _0555_
*600 _0556_
*601 _0557_
*602 _0558_
*603 _0559_
*604 _0560_
*605 _0561_
*606 _0562_
*607 _0563_
*608 _0564_
*609 _0565_
*610 _0566_
*611 _0567_
*612 _0568_
*613 _0569_
*614 _0570_
*615 _0571_
*616 _0572_
*617 _0573_
*618 _0574_
*619 _0575_
*620 _0576_
*621 _0577_
*622 _0578_
*623 _0579_
*624 _0580_
*625 _0581_
*626 _0582_
*627 _0583_
*628 _0584_
*629 _0585_
*630 _0586_
*631 _0587_
*632 _0588_
*633 _0589_
*634 _0590_
*635 _0591_
*636 _0592_
*637 _0593_
*638 _0594_
*639 _0595_
*640 _0596_
*641 _0597_
*642 _0598_
*643 _0599_
*644 _0600_
*645 _0601_
*646 _0602_
*647 _0603_
*648 _0604_
*649 _0605_
*650 _0606_
*651 _0607_
*652 _0608_
*653 _0609_
*654 _0610_
*655 _0611_
*656 _0612_
*657 _0613_
*658 _0614_
*659 _0615_
*660 _0616_
*661 _0617_
*662 _0618_
*663 _0619_
*664 _0620_
*665 _0621_
*666 _0622_
*667 _0623_
*668 _0624_
*669 _0625_
*670 _0626_
*671 _0627_
*672 _0628_
*673 _0629_
*674 _0630_
*675 _0631_
*676 _0632_
*677 _0633_
*678 _0634_
*679 _0635_
*680 _0636_
*681 _0637_
*682 _0638_
*683 _0639_
*684 _0640_
*685 _0641_
*686 _0642_
*687 _0643_
*688 _0644_
*689 _0645_
*690 _0646_
*691 _0647_
*692 _0648_
*693 _0649_
*694 _0650_
*695 _0651_
*696 _0652_
*697 _0653_
*698 _0654_
*699 _0655_
*700 _0656_
*701 _0657_
*702 _0658_
*703 _0659_
*704 _0660_
*705 _0661_
*706 _0662_
*707 _0663_
*708 _0664_
*709 _0665_
*710 _0666_
*711 _0667_
*712 _0668_
*713 _0669_
*714 _0670_
*715 _0671_
*716 _0672_
*717 _0673_
*718 _0674_
*719 _0675_
*720 _0676_
*721 _0677_
*722 _0678_
*723 _0679_
*724 _0680_
*725 _0681_
*726 _0682_
*727 _0683_
*728 _0684_
*729 _0685_
*730 _0686_
*731 _0687_
*732 _0688_
*733 _0689_
*734 _0690_
*735 _0691_
*736 _0692_
*737 _0693_
*738 _0694_
*739 _0695_
*740 _0696_
*741 _0697_
*742 _0698_
*743 _0699_
*744 _0700_
*745 _0701_
*746 _0702_
*747 _0703_
*748 _0704_
*749 _0705_
*750 _0706_
*751 _0707_
*752 _0708_
*753 _0709_
*754 _0710_
*755 _0711_
*756 _0712_
*757 _0713_
*758 _0714_
*759 _0715_
*760 _0716_
*761 _0717_
*762 _0718_
*763 _0719_
*764 _0720_
*765 _0721_
*766 _0722_
*767 _0723_
*768 _0724_
*769 _0725_
*770 _0726_
*771 _0727_
*772 _0728_
*773 _0729_
*774 _0730_
*775 _0731_
*776 _0732_
*777 _0733_
*778 _0734_
*779 _0735_
*780 _0736_
*781 _0737_
*782 _0738_
*783 _0739_
*784 _0740_
*785 _0741_
*786 _0742_
*787 _0743_
*788 _0744_
*789 _0745_
*790 _0746_
*791 _0747_
*792 _0748_
*793 _0749_
*794 _0750_
*795 _0751_
*796 _0752_
*797 _0753_
*798 _0754_
*799 _0755_
*800 _0756_
*801 _0757_
*802 _0758_
*803 _0759_
*804 _0760_
*805 _0761_
*806 _0762_
*807 _0763_
*808 _0764_
*809 _0765_
*810 _0766_
*811 _0767_
*812 _0768_
*813 _0769_
*814 _0770_
*815 _0771_
*816 _0772_
*817 _0773_
*818 _0774_
*819 _0775_
*820 _0776_
*821 _0777_
*822 _0778_
*823 _0779_
*824 _0780_
*825 _0781_
*826 _0782_
*827 _0783_
*828 _0784_
*829 _0785_
*830 _0786_
*831 _0787_
*832 _0788_
*833 _0789_
*834 _0790_
*835 _0791_
*836 _0792_
*837 _0793_
*838 _0794_
*839 _0795_
*840 _0796_
*841 handshake_latch\[0\]
*842 handshake_latch\[1\]
*843 recv.clk_rcvr.cntr\[0\]
*844 recv.clk_rcvr.cntr\[1\]
*845 recv.clk_rcvr.i
*846 recv.clk_rcvr.prev_i
*847 recv.d_filter.r\[0\]
*848 recv.d_filter.r\[1\]
*849 recv.d_filter.r\[2\]
*850 recv.destuffer.data\[0\]
*851 recv.destuffer.data\[1\]
*852 recv.destuffer.data\[2\]
*853 recv.destuffer.data\[3\]
*854 recv.destuffer.data\[4\]
*855 recv.destuffer.data\[5\]
*856 recv.destuffer.data\[6\]
*857 recv.nrzi_decoder.prev_i
*858 recv.reset_detect.cntr\[0\]
*859 recv.reset_detect.cntr\[10\]
*860 recv.reset_detect.cntr\[11\]
*861 recv.reset_detect.cntr\[12\]
*862 recv.reset_detect.cntr\[13\]
*863 recv.reset_detect.cntr\[14\]
*864 recv.reset_detect.cntr\[15\]
*865 recv.reset_detect.cntr\[16\]
*866 recv.reset_detect.cntr\[17\]
*867 recv.reset_detect.cntr\[18\]
*868 recv.reset_detect.cntr\[1\]
*869 recv.reset_detect.cntr\[2\]
*870 recv.reset_detect.cntr\[3\]
*871 recv.reset_detect.cntr\[4\]
*872 recv.reset_detect.cntr\[5\]
*873 recv.reset_detect.cntr\[6\]
*874 recv.reset_detect.cntr\[7\]
*875 recv.reset_detect.cntr\[8\]
*876 recv.reset_detect.cntr\[9\]
*877 recv.se0_filter.r\[0\]
*878 recv.se0_filter.r\[1\]
*879 recv.se0_filter.r\[2\]
*880 recv.se0_filter.r\[3\]
*881 recv.se0_filter.r\[4\]
*882 recv.short_idle_counter\[0\]
*883 recv.short_idle_counter\[1\]
*884 recv.short_idle_counter\[2\]
*885 recv.sm.clear_shift
*886 recv.sm.crc16.next\[10\]
*887 recv.sm.crc16.next\[11\]
*888 recv.sm.crc16.next\[12\]
*889 recv.sm.crc16.next\[13\]
*890 recv.sm.crc16.next\[14\]
*891 recv.sm.crc16.next\[1\]
*892 recv.sm.crc16.next\[3\]
*893 recv.sm.crc16.next\[4\]
*894 recv.sm.crc16.next\[5\]
*895 recv.sm.crc16.next\[6\]
*896 recv.sm.crc16.next\[7\]
*897 recv.sm.crc16.next\[8\]
*898 recv.sm.crc16.next\[9\]
*899 recv.sm.crc16.out
*900 recv.sm.crc16.r\[14\]
*901 recv.sm.crc16.r\[1\]
*902 recv.sm.crc16.rst_n
*903 recv.sm.crc5.next\[1\]
*904 recv.sm.crc5.next\[3\]
*905 recv.sm.crc5.next\[4\]
*906 recv.sm.crc5.r\[1\]
*907 recv.sm.crc5.r\[4\]
*908 recv.sm.shift_reg\[0\]
*909 recv.sm.shift_reg\[1\]
*910 recv.sm.shift_reg\[2\]
*911 recv.sm.shift_reg\[3\]
*912 recv.sm.shift_reg\[4\]
*913 recv.sm.shift_reg\[5\]
*914 recv.sm.shift_reg\[6\]
*915 recv.sm.shift_reg\[7\]
*916 recv.sm.state\[0\]
*917 recv.sm.state\[1\]
*918 recv.sm.state\[2\]
*919 recv.sm.xcrc16_ok
*920 recv.sm.xcrc5_ok
*921 recv.sm.xdata\[0\]
*922 recv.sm.xdata\[1\]
*923 recv.sm.xdata\[2\]
*924 recv.sm.xdata\[3\]
*925 recv.sm.xdata\[4\]
*926 recv.sm.xdata\[5\]
*927 recv.sm.xdata\[6\]
*928 recv.sm.xdata\[7\]
*929 recv.sm.xdatastrobe
*930 recv.sm.xpacket
*931 recv.sm.xpid\[0\]
*932 recv.sm.xpid\[1\]
*933 recv.sm.xpid\[2\]
*934 recv.sm.xpid\[3\]
*935 recv.sync_detect.data\[0\]
*936 recv.sync_detect.data\[1\]
*937 recv.sync_detect.data\[2\]
*938 recv.sync_detect.data\[3\]
*939 recv.sync_detect.data\[4\]
*940 recv.sync_detect.data\[5\]
*941 recv.sync_detect.data\[6\]
*942 recv_queue_0\[0\]
*943 recv_queue_0\[1\]
*944 recv_queue_0\[2\]
*945 recv_queue_0\[3\]
*946 recv_queue_0\[4\]
*947 recv_queue_0\[5\]
*948 recv_queue_0\[6\]
*949 recv_queue_0\[7\]
*950 recv_queue_0_valid
*951 recv_queue_1\[0\]
*952 recv_queue_1\[1\]
*953 recv_queue_1\[2\]
*954 recv_queue_1\[3\]
*955 recv_queue_1\[4\]
*956 recv_queue_1\[5\]
*957 recv_queue_1\[6\]
*958 recv_queue_1\[7\]
*959 recv_queue_1_valid
*960 state\[0\]
*961 state\[1\]
*962 state\[2\]
*963 state\[3\]
*964 state\[4\]
*965 state\[6\]
*966 state\[7\]
*967 token_timeout\[0\]
*968 token_timeout\[1\]
*969 token_timeout\[2\]
*970 token_timeout\[3\]
*971 token_timeout\[4\]
*972 token_timeout\[5\]
*973 token_timeout\[6\]
*974 tx.bit_stuff_counter\[0\]
*975 tx.bit_stuff_counter\[1\]
*976 tx.bit_stuff_counter\[2\]
*977 tx.crc_enabled
*978 tx.crc_out
*979 tx.data\[0\]
*980 tx.data\[1\]
*981 tx.data\[2\]
*982 tx.data\[3\]
*983 tx.data\[4\]
*984 tx.data\[5\]
*985 tx.data\[6\]
*986 tx.data\[7\]
*987 tx.last_j
*988 tx.send_crc16
*989 tx.state\[0\]
*990 tx.state\[1\]
*991 tx.state\[2\]
*992 tx.transmit
*993 tx.tx_clock\[0\]
*994 tx.tx_clock\[1\]
*995 tx.tx_crc.next\[10\]
*996 tx.tx_crc.next\[11\]
*997 tx.tx_crc.next\[12\]
*998 tx.tx_crc.next\[13\]
*999 tx.tx_crc.next\[14\]
*1000 tx.tx_crc.next\[1\]
*1001 tx.tx_crc.next\[3\]
*1002 tx.tx_crc.next\[4\]
*1003 tx.tx_crc.next\[5\]
*1004 tx.tx_crc.next\[6\]
*1005 tx.tx_crc.next\[7\]
*1006 tx.tx_crc.next\[8\]
*1007 tx.tx_crc.next\[9\]
*1008 tx.tx_crc.r\[14\]
*1009 tx.tx_crc.r\[1\]
*1010 tx.tx_crc.rst_n
*1011 tx.tx_data\[0\]
*1012 tx.tx_data\[1\]
*1013 tx.tx_data\[2\]
*1014 tx.tx_data\[3\]
*1015 tx.tx_data\[4\]
*1016 tx.tx_data\[5\]
*1017 tx.tx_data\[6\]
*1018 tx.tx_data\[7\]
*1019 tx.tx_data\[8\]
*1020 tx.update_crc16
*1021 net1
*1022 net2
*1023 net3
*1024 net4
*1025 net5
*1026 net6
*1027 net7
*1028 net8
*1029 net9
*1030 net10
*1031 net11
*1032 net12
*1033 net13
*1034 net14
*1035 net15
*1036 net16
*1037 net17
*1038 net18
*1039 net19
*1040 net20
*1041 net21
*1042 net22
*1043 net23
*1044 net24
*1045 net25
*1046 net26
*1047 net27
*1048 net28
*1049 net29
*1050 net30
*1051 net31
*1052 net32
*1053 net33
*1054 net34
*1055 net35
*1056 net36
*1057 net37
*1058 net38
*1059 net39
*1060 net40
*1061 net41
*1062 net42
*1063 net43
*1064 net44
*1065 net45
*1066 net46
*1067 net47
*1068 net48
*1069 net49
*1070 clknet_0_clk_48
*1071 clknet_1_0_0_clk_48
*1072 clknet_1_1_0_clk_48
*1073 clknet_2_0_0_clk_48
*1074 clknet_2_1_0_clk_48
*1075 clknet_2_2_0_clk_48
*1076 clknet_2_3_0_clk_48
*1077 clknet_3_0_0_clk_48
*1078 clknet_3_1_0_clk_48
*1079 clknet_3_2_0_clk_48
*1080 clknet_3_3_0_clk_48
*1081 clknet_3_4_0_clk_48
*1082 clknet_3_5_0_clk_48
*1083 clknet_3_6_0_clk_48
*1084 clknet_3_7_0_clk_48
*1085 clknet_4_0_0_clk_48
*1086 clknet_4_1_0_clk_48
*1087 clknet_4_2_0_clk_48
*1088 clknet_4_3_0_clk_48
*1089 clknet_4_4_0_clk_48
*1090 clknet_4_5_0_clk_48
*1091 clknet_4_6_0_clk_48
*1092 clknet_4_7_0_clk_48
*1093 clknet_4_8_0_clk_48
*1094 clknet_4_9_0_clk_48
*1095 clknet_4_10_0_clk_48
*1096 clknet_4_11_0_clk_48
*1097 clknet_4_12_0_clk_48
*1098 clknet_4_13_0_clk_48
*1099 clknet_4_14_0_clk_48
*1100 clknet_4_15_0_clk_48

*D_NET *0 0.008097883323
*CONN
*P clk_48 I
*I clkbuf_0_clk_48:A I
*CAP
0 clkbuf_0_clk_48:A 5.23775616e-05
1 *0:2 0.0008977387315800001
2 *0:4 0.0026621190492800003
3 *0:6 7.67789537e-05
4 *0:7 0.00011806061236
5 *0:9 5.029638022e-05
6 *0:10 0.0003621946806399999
7 *0:11 0.00010327233643999999
8 *0:13 0.0015027436575
9 *0:12 0.00227230135968
10 *0:5 0
*RES
0 clkbuf_0_clk_48:A *0:1 0.30357142857142855
1 clkbuf_0_clk_48:A clkbuf_0_clk_48:A 0.008928571428571428
2 *0:2 *0:3 10.169642857142856
3 *0:4 *0:5 27.928571428571427
4 *0:6 *0:7 0.7589285714285713
5 *0:7 *0:8 1.232142857142857
6 *0:9 *0:8 0.45535714285714285
7 *0:10 *0:11 3.6964285714285707
8 *0:11 *0:12 73.19999999999999
9 *0:13 *0:14 2.7025
10 *0:12 *0:1 23.82142857142857
11 clkbuf_0_clk_48:A clkbuf_0_clk_48:A 0
12 *0:2 *0:14 0
13 *0:4 *0:3 0
14 *0:5 *0:6 0
15 *0:10 *0:9 0
16 *0:11 *0:11 0
17 *0:12 *0:12 0
*END

*D_NET *1 0.0007627012461800001
*CONN
*P data_in[0] I
*I input1:A I
*CAP
11 *1:1 5.034052896000001e-05
12 *1:2 0.0007123607172200001
13 input1:A 0
*RES
18 *1:1 input1:A 0.4107142857142857
19 *1:2 *1:3 8.044642857142856
20 *1:1 *1:2 0
21 input1:A input1:A 0
*END

*D_NET *2 0.0004364197454
*CONN
*P data_in[1] I
*I input2:A I
*CAP
14 *2:1 0.0003596407917
15 *2:3 7.67789537e-05
16 input2:A 0
*RES
22 *2:1 *2:2 0.6125666666666667
23 *2:3 *2:4 0.7589285714285713
24 *2:3 *2:2 0
25 input2:A input2:A 0
26 input2:A *2:4 0
*END

*D_NET *3 0.00080168301514
*CONN
*P data_in[2] I
*I input3:A I
*CAP
17 *3:1 8.932229792e-05
18 *3:2 0.0007123607172200001
19 input3:A 0
*RES
27 *3:1 input3:A 0.8214285714285714
28 *3:2 *3:3 8.044642857142856
29 *3:1 *3:2 0
30 input3:A input3:A 0
*END

*D_NET *4 0.0007752004416600002
*CONN
*P data_in[3] I
*I input4:A I
*CAP
20 *4:1 0.0006858781437400002
21 *4:3 8.932229792e-05
22 input4:A 0
*RES
31 *4:1 *4:2 7.741071428571428
32 *4:3 input4:A 0.8214285714285714
33 *4:3 *4:2 0
34 input4:A input4:A 0
*END

*D_NET *5 0.0007123607172200001
*CONN
*P data_in[4] I
*I input5:A I
*CAP
23 *5:1 0.0007123607172200001
24 input5:A 0
*RES
35 *5:1 *5:2 8.044642857142856
36 input5:A input5:A 0
37 input5:A *5:1 0
*END

*D_NET *6 0.00058054129944
*CONN
*P data_in[5] I
*I input6:A I
*CAP
25 *6:1 2.3813806740000006e-05
26 *6:3 0.0005567274927
27 input6:A 0
*RES
38 *6:1 *6:2 0.15178571428571427
39 *6:3 *6:4 0.9729000000000001
40 input6:A input6:A 0
41 input6:A *6:2 0
42 *6:1 *6:3 0
*END

*D_NET *7 0.0007000194001199999
*CONN
*P data_in[6] I
*I input7:A I
*CAP
28 *7:1 0.0005173101524999999
29 *7:3 0.00018270924762000003
30 input7:A 0
*RES
43 *7:1 *7:2 0.9008333333333334
44 *7:3 *7:4 1.9732142857142856
45 *7:3 *7:2 0
46 input7:A input7:A 0
47 input7:A *7:4 0
*END

*D_NET *8 0.0006864715933599999
*CONN
*P data_in[7] I
*I input8:A I
*CAP
31 *8:1 0.00012974410066
32 *8:3 0.0005567274927
33 input8:A 0
*RES
48 *8:1 *8:2 1.3660714285714284
49 *8:3 *8:4 0.9729000000000001
50 input8:A input8:A 0
51 input8:A *8:2 0
52 *8:1 *8:3 0
*END

*D_NET *9 0.00064644121312
*CONN
*P data_in_valid I
*I input9:A I
*CAP
34 *9:1 5.029638022e-05
35 *9:3 0.0005961448329
36 input9:A 0
*RES
53 *9:1 *9:2 0.45535714285714285
54 *9:3 *9:4 1.0449666666666666
55 input9:A input9:A 0
56 input9:A *9:2 0
57 *9:1 *9:3 0
*END

*D_NET *10 0.0006858781437400002
*CONN
*P data_out[0] O
*I output23:X O
*CAP
37 *10:1 0.0006858781437400002
38 output23:X 0
*RES
58 *10:1 *10:2 7.741071428571428
59 output23:X output23:X 0
60 output23:X *10:1 0
*END

*D_NET *11 0.0006858781437400002
*CONN
*P data_out[1] O
*I output24:X O
*CAP
39 *11:1 0.0006858781437400002
40 output24:X 0
*RES
61 *11:1 *11:2 7.741071428571428
62 output24:X output24:X 0
63 output24:X *11:1 0
*END

*D_NET *12 0.00070973609922
*CONN
*P data_out[2] O
*I output25:X O
*CAP
41 *12:1 5.034052896000001e-05
42 *12:2 0.00065939557026
43 output25:X 0
*RES
64 *12:1 output25:X 0.4107142857142857
65 *12:2 *12:3 7.437499999999999
66 output25:X output25:X 0
67 *12:1 *12:2 0
*END

*D_NET *13 0.00063291299678
*CONN
*P data_out[3] O
*I output26:X O
*CAP
44 *13:1 0.00063291299678
45 output26:X 0
*RES
68 *13:1 *13:2 7.133928571428571
69 output26:X output26:X 0
70 output26:X *13:2 0
*END

*D_NET *14 0.0009171441395
*CONN
*P data_out[4] O
*I output27:X O
*CAP
46 *14:1 0.00063291299678
47 *14:3 0.00028423114272
48 output27:X 0
*RES
71 *14:1 *14:2 7.133928571428571
72 *14:3 output27:X 2.875
73 *14:3 *14:2 0
74 output27:X output27:X 0
*END

*D_NET *15 0.00054112395924
*CONN
*P data_out[5] O
*I output28:X O
*CAP
49 *15:1 0.0005173101524999999
50 *15:3 2.3813806740000006e-05
51 *15:4 0
52 output28:X 0
*RES
75 *15:1 *15:2 0.9008333333333334
76 *15:3 *15:4 0.15178571428571427
77 *15:4 *15:2 0
78 output28:X output28:X 0
79 output28:X *15:3 0
*END

*D_NET *16 0.00063291299678
*CONN
*P data_out[6] O
*I output29:X O
*CAP
53 *16:1 0.00063291299678
54 output29:X 0
*RES
80 *16:1 *16:2 7.133928571428571
81 output29:X output29:X 0
82 output29:X *16:2 0
*END

*D_NET *17 0.00099510767742
*CONN
*P data_out[7] O
*I output30:X O
*CAP
55 *17:1 0.00063291299678
56 *17:3 0.0003621946806399999
57 output30:X 0
*RES
83 *17:1 *17:2 7.133928571428571
84 *17:3 output30:X 3.6964285714285707
85 *17:3 *17:2 0
86 output30:X output30:X 0
*END

*D_NET *18 0.0006864715933599999
*CONN
*P data_strobe O
*I output31:X O
*CAP
58 *18:1 0.0005567274927
59 *18:3 0.00012974410066
60 output31:X 0
*RES
87 *18:1 *18:2 0.9729000000000001
88 *18:3 *18:4 1.3660714285714284
89 *18:3 *18:2 0
90 output31:X output31:X 0
91 output31:X *18:4 0
*END

*D_NET *19 0.0009186283220200001
*CONN
*P data_toggle I
*I input10:A I
*CAP
61 input10:A 0.0002062676048
62 *19:2 0.0007123607172200001
63 *19:1 0
*RES
92 input10:A *19:1 2.0535714285714284
93 *19:2 *19:3 8.044642857142856
94 *19:1 *19:2 0
95 input10:A input10:A 0
*END

*D_NET *20 0.00119001652222
*CONN
*P direction_in O
*I output32:X O
*CAP
64 *20:1 0.00063291299678
65 *20:3 0.00055710352544
66 output32:X 0
*RES
96 *20:1 *20:2 7.133928571428571
97 *20:3 output32:X 5.75
98 *20:3 *20:2 0
99 output32:X output32:X 0
*END

*D_NET *21 0.00087816237054
*CONN
*P endpoint[0] O
*I output33:X O
*CAP
67 *21:1 0.00063291299678
68 *21:3 0.00024524937376
69 output33:X 0
*RES
100 *21:1 *21:2 7.133928571428571
101 *21:3 output33:X 2.464285714285714
102 *21:3 *21:2 0
103 output33:X output33:X 0
*END

*D_NET *22 0.00081888446076
*CONN
*P endpoint[1] O
*I output34:X O
*CAP
70 *22:1 0.00026215696806
71 *22:3 0.0005567274927
72 output34:X 0
73 *22:2 0
*RES
104 *22:1 *22:2 2.883928571428571
105 *22:3 *22:4 0.9729000000000001
106 output34:X output34:X 0
107 output34:X *22:1 0
108 *22:2 *22:3 0
*END

*D_NET *23 0.00063291299678
*CONN
*P endpoint[2] O
*I output35:X O
*CAP
74 *23:1 0.00063291299678
75 output35:X 0
*RES
109 *23:1 *23:2 7.133928571428571
110 output35:X output35:X 0
111 output35:X *23:2 0
*END

*D_NET *24 0.0006064304233
*CONN
*P endpoint[3] O
*I output36:X O
*CAP
76 *24:1 0.0006064304233
77 output36:X 0
*RES
112 *24:1 *24:2 6.830357142857142
113 output36:X output36:X 0
114 output36:X *24:2 0
*END

*D_NET *25 0.00048938489236
*CONN
*P handshake[0] I
*I input11:A I
*CAP
78 *25:1 0.0003596407917
79 *25:3 0.00012974410066
80 *25:4 0
81 input11:A 0
*RES
115 *25:1 *25:2 0.6125666666666667
116 *25:3 *25:4 1.3660714285714284
117 *25:4 *25:2 0
118 input11:A input11:A 0
119 input11:A *25:3 0
*END

*D_NET *26 0.00046290231888
*CONN
*P handshake[1] I
*I input12:A I
*CAP
82 *26:1 0.0003596407917
83 *26:3 0.00010326152718000001
84 input12:A 0
*RES
120 *26:1 *26:2 0.6125666666666667
121 *26:3 *26:4 1.0624999999999998
122 *26:3 *26:2 0
123 input12:A input12:A 0
124 input12:A *26:4 0
*END

*D_NET *27 0.0008153718135000002
*CONN
*P rst_n I
*I input13:A I
*CAP
85 *27:1 0.00012949366976
86 *27:3 0.0006858781437400002
87 *27:2 0
88 input13:A 0
*RES
125 *27:1 *27:2 0.30357142857142855
126 *27:1 input13:A 0.8214285714285714
127 *27:3 *27:4 7.741071428571428
128 *27:2 *27:3 0
129 input13:A input13:A 0
*END

*D_NET *28 0.0007123607172200001
*CONN
*P rx_j I
*I input14:A I
*CAP
89 *28:1 0.0007123607172200001
90 input14:A 0
*RES
130 *28:1 *28:2 8.044642857142856
131 input14:A input14:A 0
132 input14:A *28:1 0
*END

*D_NET *29 0.0006599890198799999
*CONN
*P rx_se0 I
*I input15:A I
*CAP
91 *29:1 0.00010326152718000001
92 *29:3 0.0005567274927
93 input15:A 0
94 *29:2 0
*RES
133 *29:1 *29:2 1.0624999999999998
134 *29:3 *29:4 0.9729000000000001
135 input15:A input15:A 0
136 input15:A *29:1 0
137 *29:2 *29:3 0
*END

*D_NET *30 0.0018991526130799998
*CONN
*P setup O
*I output37:X O
*CAP
95 *30:1 0.00063291299678
96 *30:3 0.0012662396163
97 output37:X 0
*RES
138 *30:1 *30:2 7.133928571428571
139 *30:3 *30:4 2.2701000000000002
140 output37:X output37:X 0
141 output37:X *30:2 0
142 *30:1 *30:3 0
*END

*D_NET *31 0.00070973609922
*CONN
*P success O
*I output38:X O
*CAP
98 *31:1 5.034052896000001e-05
99 *31:2 0.00065939557026
100 output38:X 0
*RES
143 *31:1 output38:X 0.4107142857142857
144 *31:2 *31:3 7.437499999999999
145 output38:X output38:X 0
146 *31:1 *31:2 0
*END

*D_NET *32 0.00063291299678
*CONN
*P transaction_active O
*I output39:X O
*CAP
101 *32:1 0.00063291299678
102 output39:X 0
*RES
147 *32:1 *32:2 7.133928571428571
148 output39:X output39:X 0
149 output39:X *32:2 0
*END

*D_NET *33 0.00058054129944
*CONN
*P tx_en O
*I output40:X O
*CAP
103 *33:1 2.3813806740000006e-05
104 *33:3 0.0005567274927
105 output40:X 0
106 *33:2 0
*RES
150 *33:1 *33:2 0.15178571428571427
151 *33:3 *33:4 0.9729000000000001
152 output40:X output40:X 0
153 output40:X *33:1 0
154 *33:2 *33:3 0
*END

*D_NET *34 0.0009561259084600001
*CONN
*P tx_j O
*I output41:X O
*CAP
107 *34:1 0.00063291299678
108 *34:3 0.00032321291168
109 output41:X 0
*RES
155 *34:1 *34:2 7.133928571428571
156 *34:3 output41:X 3.2857142857142856
157 *34:3 *34:2 0
158 output41:X output41:X 0
*END

*D_NET *35 0.00054112395924
*CONN
*P tx_se0 O
*I output42:X O
*CAP
110 *35:1 0.0005173101524999999
111 *35:3 2.3813806740000006e-05
112 output42:X 0
*RES
159 *35:1 *35:2 0.9008333333333334
160 *35:3 *35:4 0.15178571428571427
161 *35:3 *35:2 0
162 output42:X output42:X 0
163 output42:X *35:4 0
*END

*D_NET *36 0.0006858781437400002
*CONN
*P usb_address[0] I
*I input16:A I
*CAP
113 *36:1 0.0006858781437400002
114 input16:A 0
*RES
164 *36:1 *36:2 7.741071428571428
165 input16:A input16:A 0
166 input16:A *36:2 0
*END

*D_NET *37 0.0007362186727000002
*CONN
*P usb_address[1] I
*I input17:A I
*CAP
115 input17:A 5.034052896000001e-05
116 *37:2 0.0006858781437400002
117 *37:1 0
*RES
167 input17:A *37:1 0.4107142857142857
168 *37:2 *37:3 7.741071428571428
169 input17:A input17:A 0
170 *37:1 *37:2 0
*END

*D_NET *38 0.0007123607172200001
*CONN
*P usb_address[2] I
*I input18:A I
*CAP
118 *38:1 0.0007123607172200001
119 input18:A 0
*RES
171 *38:1 *38:2 8.044642857142856
172 input18:A input18:A 0
173 input18:A *38:1 0
*END

*D_NET *39 0.00263791943544
*CONN
*P usb_address[3] I
*I input19:A I
*CAP
120 *39:1 0.00018270924762000003
121 *39:3 0.0005181217564799999
122 input19:A 4.017137184e-05
123 *39:5 0.0018969170595000001
124 *39:2 0
125 *39:4 0
*RES
174 *39:1 *39:2 1.9732142857142856
175 *39:3 *39:4 5.339285714285714
176 input19:A *39:3 0.30357142857142855
177 *39:5 *39:6 3.423166666666667
178 *39:2 *39:5 0
179 *39:4 *39:1 0
180 input19:A input19:A 0
*END

*D_NET *40 0.00101903636196
*CONN
*P usb_address[4] I
*I input20:A I
*CAP
126 *40:1 0.0003596407917
127 *40:3 0.00065939557026
128 *40:4 0
129 input20:A 0
*RES
181 *40:1 *40:2 0.6125666666666667
182 *40:3 *40:4 7.437499999999999
183 *40:4 *40:2 0
184 input20:A input20:A 0
185 input20:A *40:3 0
*END

*D_NET *41 0.0007362186727000002
*CONN
*P usb_address[5] I
*I input21:A I
*CAP
130 *41:1 0.0006858781437400002
131 *41:3 5.034052896000001e-05
132 input21:A 0
*RES
186 *41:1 *41:2 7.741071428571428
187 *41:3 input21:A 0.4107142857142857
188 *41:3 *41:2 0
189 input21:A input21:A 0
*END

*D_NET *42 0.0020101178529
*CONN
*P usb_address[6] I
*I input22:A I
*CAP
133 input22:A 0.0012977571356799999
134 *42:2 0.0007123607172200001
135 *42:1 0
*RES
190 input22:A *42:1 13.553571428571427
191 *42:2 *42:3 8.044642857142856
192 *42:1 *42:2 0
193 input22:A input22:A 0
*END

*D_NET *43 0.00060702387292
*CONN
*P usb_rst O
*I output43:X O
*CAP
136 *43:1 5.029638022e-05
137 *43:3 0.0005567274927
138 output43:X 0
139 *43:2 0
*RES
194 *43:1 *43:2 0.45535714285714285
195 *43:3 *43:4 0.9729000000000001
196 output43:X output43:X 0
197 output43:X *43:1 0
198 *43:2 *43:3 0
*END

*D_NET *44 0.00056111358004
*CONN
*I _1667_:D I
*I _1417_:X O
*CAP
140 _1417_:X 0.0002062676048
141 *44:2 0.00035484597524
142 *44:1 0
143 _1667_:D 0
*RES
199 _1417_:X *44:1 2.0535714285714284
200 *44:2 *44:3 3.946428571428571
201 _1417_:X _1417_:X 0
202 *44:1 *44:2 0
203 _1667_:D _1667_:D 0
204 _1667_:D *44:3 0
*END

*D_NET *45 0.0013351559762
*CONN
*I _1668_:D I
*I _1419_:X O
*CAP
144 *45:1 0.0003621946806399999
145 *45:2 0.00014298538739999998
146 _1668_:D 0.00082997590816
147 _1419_:X 0
148 *45:4 0
*RES
205 *45:1 _1419_:X 3.6964285714285707
206 *45:2 *45:3 1.5178571428571426
207 _1668_:D *45:4 8.625
208 _1668_:D _1668_:D 0
209 _1419_:X _1419_:X 0
210 *45:1 *45:2 0
211 *45:4 *45:3 0
*END

*D_NET *46 0.00044134782144
*CONN
*I _1669_:D I
*I _1440_:Y O
*CAP
149 _1440_:Y 0.00044134782144
150 _1669_:D 0
*RES
212 _1440_:Y _1440_:Y 0.30357142857142855
213 _1440_:Y _1669_:D 4.107142857142857
214 _1440_:Y _1440_:Y 0
215 _1669_:D _1669_:D 0
*END

*D_NET *47 0.00042721653012
*CONN
*I _1670_:D I
*I _1420_:Y O
*CAP
151 *47:1 0.00014298538739999998
152 *47:3 0.00028423114272
153 _1670_:D 0
154 _1420_:Y 0
*RES